Version 4
SHEET 1 1104 1020
WIRE -848 64 -864 64
WIRE -752 64 -848 64
WIRE -592 64 -656 64
WIRE -400 64 -592 64
WIRE -240 64 -400 64
WIRE -80 64 -160 64
WIRE 64 64 0 64
WIRE 160 64 64 64
WIRE 208 64 160 64
WIRE 320 64 208 64
WIRE 64 96 64 64
WIRE 320 112 320 64
WIRE -864 128 -864 64
WIRE -400 128 -400 64
WIRE 208 128 208 64
WIRE -672 176 -672 112
WIRE -592 176 -592 64
WIRE 64 192 64 176
WIRE -400 240 -400 192
WIRE 320 240 320 192
WIRE -864 256 -864 208
WIRE 208 256 208 208
WIRE -1248 272 -1264 272
WIRE -1152 272 -1184 272
WIRE 64 288 64 256
WIRE -1536 320 -1616 320
WIRE -1456 320 -1536 320
WIRE -1536 336 -1536 320
WIRE -1264 368 -1264 272
WIRE -1264 368 -1280 368
WIRE -1248 368 -1264 368
WIRE -1152 368 -1152 272
WIRE -1152 368 -1168 368
WIRE -1104 368 -1152 368
WIRE -1008 368 -1104 368
WIRE -912 368 -1008 368
WIRE -2000 400 -2048 400
WIRE -1872 400 -1920 400
WIRE -1824 400 -1872 400
WIRE -1616 400 -1616 320
WIRE -1616 400 -1664 400
WIRE -1104 400 -1104 368
WIRE -1008 400 -1008 368
WIRE -1280 448 -1280 368
WIRE -1280 448 -1664 448
WIRE -1872 496 -1872 464
WIRE -1872 496 -1888 496
WIRE -1824 496 -1872 496
WIRE -1536 496 -1536 400
WIRE -1536 496 -1664 496
WIRE -1456 496 -1456 400
WIRE -1456 496 -1536 496
WIRE -1104 496 -1104 480
WIRE -1104 496 -1456 496
WIRE -1008 496 -1008 464
WIRE -1008 496 -1104 496
WIRE -912 496 -1008 496
WIRE -1888 560 -1888 496
WIRE -704 624 -736 624
WIRE -528 624 -624 624
WIRE -400 624 -464 624
WIRE -192 656 -288 656
WIRE 48 656 -112 656
WIRE -400 752 -400 624
WIRE -400 752 -496 752
WIRE -288 752 -288 656
WIRE -288 752 -400 752
WIRE -240 752 -288 752
WIRE -96 752 -176 752
WIRE 48 752 48 656
WIRE 48 752 -16 752
WIRE 160 752 160 64
WIRE 160 752 48 752
WIRE -896 768 -976 768
WIRE -736 768 -736 624
WIRE -736 768 -896 768
WIRE -560 768 -736 768
WIRE -2048 784 -2048 400
WIRE -1040 784 -2048 784
WIRE -384 784 -496 784
WIRE -896 800 -976 800
WIRE -896 832 -896 800
WIRE -528 832 -528 800
WIRE -384 832 -384 784
WIRE -1008 864 -1008 816
WIRE -384 944 -384 912
WIRE -896 976 -896 912
FLAG -400 240 0
FLAG 64 288 0
FLAG 208 256 0
FLAG -864 256 0
FLAG -672 176 Gate
FLAG -592 176 Source
FLAG -912 368 Gate
FLAG -912 496 Source
FLAG -1888 560 0
FLAG 320 240 0
FLAG -848 64 IN
FLAG -528 736 IN
FLAG -528 832 0
FLAG -384 944 0
FLAG -896 768 Ctr
FLAG -1008 752 IN
FLAG -1008 864 0
FLAG -896 976 0
SYMBOL schottky -384 192 R180
WINDOW 0 24 64 Left 2
WINDOW 3 -152 5 Left 2
SYMATTR InstName D1
SYMATTR Value MBR20100CT
SYMATTR Description Diode
SYMATTR Type diode
SYMBOL voltage -864 112 R0
WINDOW 123 0 0 Left 0
WINDOW 39 0 0 Left 0
SYMATTR InstName V1
SYMATTR Value 5
SYMBOL ind -96 80 R270
WINDOW 0 32 56 VTop 2
WINDOW 3 5 56 VBottom 2
SYMATTR InstName L1
SYMATTR Value 1µ
SYMBOL cap 48 192 R0
SYMATTR InstName C1
SYMATTR Value 200µ
SYMBOL res 192 112 R0
SYMATTR InstName R1
SYMATTR Value 1k
SYMBOL nmos -752 112 R270
SYMATTR InstName M1
SYMATTR Value IRF540N
SYMBOL res 48 80 R0
SYMATTR InstName ESR
SYMATTR Value .8m
SYMBOL res -1904 384 R90
WINDOW 0 0 56 VBottom 2
WINDOW 3 32 56 VTop 2
SYMATTR InstName R4
SYMATTR Value 330
SYMBOL voltage -1456 304 R0
WINDOW 123 0 0 Left 0
WINDOW 39 0 0 Left 0
SYMATTR InstName V3
SYMATTR Value 20
SYMBOL cap -1552 336 R0
SYMATTR InstName C2
SYMATTR Value .1µ
SYMBOL res -1120 384 R0
SYMATTR InstName R2
SYMATTR Value 4.7k
SYMBOL ZZZ\\OPTO\\OPTO\\TLP350 -1776 448 R0
SYMATTR InstName U1
SYMBOL zener -992 464 R180
WINDOW 0 24 64 Left 2
WINDOW 3 -156 26 Left 2
SYMATTR InstName D2
SYMATTR Value BZX84B20VL
SYMATTR Description Diode
SYMATTR Type diode
SYMBOL res -1152 352 R90
WINDOW 0 0 56 VBottom 2
WINDOW 3 32 56 VTop 2
SYMATTR InstName R3
SYMATTR Value 10
SYMBOL diode -1184 256 R90
WINDOW 0 0 32 VBottom 2
WINDOW 3 32 32 VTop 2
SYMATTR InstName D3
SYMATTR Value 1N4001
SYMBOL res -144 48 R90
WINDOW 0 0 56 VBottom 2
WINDOW 3 32 56 VTop 2
SYMATTR InstName R5
SYMATTR Value 15m
SYMBOL current 320 112 R0
WINDOW 123 0 0 Left 0
WINDOW 39 0 0 Left 0
SYMATTR InstName I1
SYMATTR Value PULSE(0 5 150u 1u 1u 25u 200u)
SYMBOL res -96 640 R90
WINDOW 0 0 56 VBottom 2
WINDOW 3 32 56 VTop 2
SYMATTR InstName R6
SYMATTR Value 3k
SYMBOL res 0 736 R90
WINDOW 0 0 56 VBottom 2
WINDOW 3 32 56 VTop 2
SYMATTR InstName R7
SYMATTR Value 360
SYMBOL cap -176 736 R90
WINDOW 0 0 32 VBottom 2
WINDOW 3 32 32 VTop 2
SYMATTR InstName C3
SYMATTR Value 1.5n
SYMBOL OpAmps\\LT1215 -528 704 M0
SYMATTR InstName U2
SYMBOL voltage -384 816 R0
WINDOW 123 0 0 Left 0
WINDOW 39 0 0 Left 0
SYMATTR InstName V4
SYMATTR Value PWL(0 0 50u 1.8)
SYMBOL cap -464 608 R90
WINDOW 0 0 32 VBottom 2
WINDOW 3 32 32 VTop 2
SYMATTR InstName C4
SYMATTR Value 1.3n
SYMBOL res -608 608 R90
WINDOW 0 0 56 VBottom 2
WINDOW 3 32 56 VTop 2
SYMATTR InstName R8
SYMATTR Value 16k
SYMBOL OpAmps\\LT1215 -1008 848 R180
SYMATTR InstName U3
SYMBOL voltage -896 816 R0
WINDOW 123 0 0 Left 0
WINDOW 39 0 0 Left 0
SYMATTR InstName V5
SYMATTR Value PULSE(0 5 0 10u 0 0 10u)
SYMBOL cap -1888 400 R0
SYMATTR InstName C5
SYMATTR Value 100p
TEXT -552 0 Left 2 !.tran 0 100m 0 1u
TEXT -848 -128 Left 5 ;External Power supply Technique
