Version 4
SHEET 1 1104 1020
WIRE -752 64 -864 64
WIRE -592 64 -656 64
WIRE -400 64 -592 64
WIRE -288 64 -400 64
WIRE -144 64 -208 64
WIRE 0 64 -144 64
WIRE -144 80 -144 64
WIRE -864 128 -864 64
WIRE -400 128 -400 64
WIRE 0 128 0 64
WIRE -672 176 -672 112
WIRE -592 176 -592 64
WIRE -144 176 -144 160
WIRE -400 240 -400 192
WIRE -864 256 -864 208
WIRE 0 256 0 208
WIRE -144 272 -144 256
WIRE -144 368 -144 336
WIRE -64 480 -80 480
WIRE 32 480 0 480
WIRE -352 528 -432 528
WIRE -272 528 -352 528
WIRE -352 544 -352 528
WIRE -80 576 -80 480
WIRE -80 576 -96 576
WIRE -64 576 -80 576
WIRE 32 576 32 480
WIRE 32 576 16 576
WIRE 80 576 32 576
WIRE 176 576 80 576
WIRE 272 576 176 576
WIRE -816 608 -864 608
WIRE -640 608 -736 608
WIRE -432 608 -432 528
WIRE -432 608 -480 608
WIRE 80 608 80 576
WIRE 176 608 176 576
WIRE -864 624 -864 608
WIRE -96 656 -96 576
WIRE -96 656 -480 656
WIRE -640 704 -704 704
WIRE -352 704 -352 608
WIRE -352 704 -480 704
WIRE -272 704 -272 608
WIRE -272 704 -352 704
WIRE 80 704 80 688
WIRE 80 704 -272 704
WIRE 176 704 176 672
WIRE 176 704 80 704
WIRE 272 704 176 704
WIRE -864 768 -864 704
WIRE -704 768 -704 704
FLAG -400 240 0
FLAG -144 368 0
FLAG 0 256 0
FLAG -864 256 0
FLAG -864 768 0
FLAG -672 176 Gate
FLAG -592 176 Source
FLAG 272 576 Gate
FLAG 272 704 Source
FLAG -704 768 0
SYMBOL schottky -384 192 R180
WINDOW 0 24 64 Left 2
WINDOW 3 -152 5 Left 2
SYMATTR InstName D1
SYMATTR Value MBR20100CT
SYMATTR Description Diode
SYMATTR Type diode
SYMBOL voltage -864 112 R0
WINDOW 123 0 0 Left 0
WINDOW 39 0 0 Left 0
SYMATTR InstName V1
SYMATTR Value 50
SYMBOL ind -304 80 R270
WINDOW 0 32 56 VTop 2
WINDOW 3 5 56 VBottom 2
SYMATTR InstName L1
SYMATTR Value 3m
SYMBOL cap -160 272 R0
SYMATTR InstName C1
SYMATTR Value 100µ
SYMBOL res -16 112 R0
SYMATTR InstName R1
SYMATTR Value 20
SYMBOL nmos -752 112 R270
SYMATTR InstName M1
SYMATTR Value IRF540N
SYMBOL voltage -864 608 R0
WINDOW 0 32 56 VTop 2
WINDOW 3 -32 56 VBottom 2
WINDOW 123 0 0 Left 0
WINDOW 39 0 0 Left 0
SYMATTR InstName V2
SYMATTR Value PULSE(0 5 0 1n 1n 50u 100u)
SYMBOL res -160 160 R0
SYMATTR InstName ESR
SYMATTR Value 100m
SYMBOL ind -160 64 R0
SYMATTR InstName ESL
SYMATTR Value 10n
SYMBOL res -720 592 R90
WINDOW 0 0 56 VBottom 2
WINDOW 3 32 56 VTop 2
SYMATTR InstName R4
SYMATTR Value 330
SYMBOL voltage -272 512 R0
WINDOW 123 0 0 Left 0
WINDOW 39 0 0 Left 0
SYMATTR InstName V3
SYMATTR Value 20
SYMBOL cap -368 544 R0
SYMATTR InstName C2
SYMATTR Value .1µ
SYMBOL res 64 592 R0
SYMATTR InstName R2
SYMATTR Value 4.7k
SYMBOL ZZZ\\OPTO\\OPTO\\TLP350 -592 656 R0
SYMATTR InstName U1
SYMBOL zener 192 672 R180
WINDOW 0 24 64 Left 2
WINDOW 3 -156 26 Left 2
SYMATTR InstName D2
SYMATTR Value BZX84B20VL
SYMATTR Description Diode
SYMATTR Type diode
SYMBOL res 32 560 R90
WINDOW 0 0 56 VBottom 2
WINDOW 3 32 56 VTop 2
SYMATTR InstName R3
SYMATTR Value 10
SYMBOL diode 0 464 R90
WINDOW 0 0 32 VBottom 2
WINDOW 3 32 32 VTop 2
SYMATTR InstName D3
SYMATTR Value 1N4001
TEXT -552 0 Left 2 !.tran 0 100m 0 1u
TEXT -848 -128 Left 5 ;External Power supply Technique
