Version 4
SHEET 1 1104 1476
WIRE -752 64 -864 64
WIRE -592 64 -656 64
WIRE -400 64 -592 64
WIRE -288 64 -400 64
WIRE -144 64 -208 64
WIRE 0 64 -144 64
WIRE 128 64 0 64
WIRE -144 80 -144 64
WIRE 128 96 128 64
WIRE -864 128 -864 64
WIRE -400 128 -400 64
WIRE 0 128 0 64
WIRE -672 176 -672 112
WIRE -592 176 -592 64
WIRE -144 176 -144 160
WIRE 128 208 128 176
WIRE 480 208 128 208
WIRE 128 224 128 208
WIRE -400 240 -400 192
WIRE -864 256 -864 208
WIRE 0 256 0 208
WIRE -1024 272 -1024 192
WIRE -144 272 -144 256
WIRE -144 368 -144 336
WIRE 128 368 128 304
WIRE -1024 432 -1024 352
WIRE -240 496 -256 496
WIRE -144 496 -176 496
WIRE -528 544 -608 544
WIRE -448 544 -528 544
WIRE -528 560 -528 544
WIRE -256 592 -256 496
WIRE -256 592 -272 592
WIRE -240 592 -256 592
WIRE -144 592 -144 496
WIRE -144 592 -160 592
WIRE -96 592 -144 592
WIRE 0 592 -96 592
WIRE 96 592 0 592
WIRE -992 624 -1040 624
WIRE -816 624 -912 624
WIRE -608 624 -608 544
WIRE -608 624 -656 624
WIRE -96 624 -96 592
WIRE 0 624 0 592
WIRE -272 672 -272 592
WIRE -272 672 -656 672
WIRE -816 720 -880 720
WIRE -528 720 -528 624
WIRE -528 720 -656 720
WIRE -448 720 -448 624
WIRE -448 720 -528 720
WIRE -96 720 -96 704
WIRE -96 720 -448 720
WIRE 0 720 0 688
WIRE 0 720 -96 720
WIRE 96 720 0 720
WIRE -880 784 -880 720
WIRE 352 880 352 816
WIRE -416 896 -416 832
WIRE 480 896 480 208
WIRE 480 896 384 896
WIRE 320 912 -384 912
WIRE -1040 928 -1040 624
WIRE -448 928 -1040 928
WIRE 512 928 384 928
WIRE -256 944 -384 944
WIRE 512 960 512 928
WIRE -256 976 -256 944
WIRE 352 1024 352 944
WIRE -416 1040 -416 960
WIRE 512 1120 512 1040
WIRE -256 1136 -256 1056
WIRE -624 1216 -624 1152
WIRE -16 1232 -592 1232
WIRE -656 1248 -832 1248
WIRE -464 1264 -592 1264
WIRE -16 1264 -16 1232
WIRE -464 1296 -464 1264
WIRE -624 1360 -624 1280
WIRE -16 1376 -16 1344
WIRE -464 1456 -464 1376
FLAG -400 240 0
FLAG -144 368 0
FLAG 0 256 0
FLAG -864 256 0
FLAG -672 176 Gate
FLAG -592 176 Source
FLAG 96 592 Gate
FLAG 96 720 Source
FLAG -880 784 0
FLAG -416 1040 0
FLAG -416 832 Vcc
FLAG -1024 192 Vcc
FLAG -1024 432 0
FLAG -256 1136 0
FLAG 128 368 0
FLAG 352 1024 0
FLAG 352 816 Vcc
FLAG 512 1120 0
FLAG -624 1360 0
FLAG -624 1152 Vcc
FLAG -464 1456 0
FLAG -16 1376 0
SYMBOL schottky -384 192 R180
WINDOW 0 24 64 Left 2
WINDOW 3 -152 5 Left 2
SYMATTR InstName D1
SYMATTR Value MBR20100CT
SYMATTR Description Diode
SYMATTR Type diode
SYMBOL voltage -864 112 R0
WINDOW 123 0 0 Left 0
WINDOW 39 0 0 Left 0
SYMATTR InstName V1
SYMATTR Value 50
SYMBOL ind -304 80 R270
WINDOW 0 32 56 VTop 2
WINDOW 3 5 56 VBottom 2
SYMATTR InstName L1
SYMATTR Value 3m
SYMBOL cap -160 272 R0
SYMATTR InstName C1
SYMATTR Value 100µ
SYMBOL res -16 112 R0
SYMATTR InstName R1
SYMATTR Value 50
SYMBOL nmos -752 112 R270
SYMATTR InstName M1
SYMATTR Value IRF540N
SYMBOL res -160 160 R0
SYMATTR InstName ESR
SYMATTR Value 100m
SYMBOL ind -160 64 R0
SYMATTR InstName ESL
SYMATTR Value 10n
SYMBOL res -896 608 R90
WINDOW 0 0 56 VBottom 2
WINDOW 3 32 56 VTop 2
SYMATTR InstName R4
SYMATTR Value 330
SYMBOL voltage -448 528 R0
WINDOW 123 0 0 Left 0
WINDOW 39 0 0 Left 0
SYMATTR InstName V3
SYMATTR Value 20
SYMBOL cap -544 560 R0
SYMATTR InstName C2
SYMATTR Value .1µ
SYMBOL res -112 608 R0
SYMATTR InstName R2
SYMATTR Value 4.7k
SYMBOL ZZZ\\OPTO\\OPTO\\TLP350 -768 672 R0
SYMATTR InstName U1
SYMBOL zener 16 688 R180
WINDOW 0 24 64 Left 2
WINDOW 3 -156 26 Left 2
SYMATTR InstName D2
SYMATTR Value BZX84B20VL
SYMATTR Description Diode
SYMATTR Type diode
SYMBOL res -144 576 R90
WINDOW 0 0 56 VBottom 2
WINDOW 3 32 56 VTop 2
SYMATTR InstName R3
SYMATTR Value 10
SYMBOL diode -176 480 R90
WINDOW 0 0 32 VBottom 2
WINDOW 3 32 32 VTop 2
SYMATTR InstName D3
SYMATTR Value 1N4001
SYMBOL OpAmps\\LT1213 -416 864 M0
SYMATTR InstName U2
SYMBOL voltage -1024 256 R0
WINDOW 123 0 0 Left 0
WINDOW 39 0 0 Left 0
SYMATTR InstName V4
SYMATTR Value 6
SYMBOL voltage -256 960 R0
WINDOW 123 0 0 Left 0
WINDOW 39 0 0 Left 0
SYMATTR InstName V5
SYMATTR Value PULSE(0 5 0 100u 1n 1n 100u)
SYMBOL res 112 80 R0
SYMATTR InstName R5
SYMATTR Value 10k
SYMBOL res 112 208 R0
SYMATTR InstName R6
SYMATTR Value 1k
SYMBOL OpAmps\\LT1213 352 848 M0
SYMATTR InstName U3
SYMBOL voltage 512 944 R0
WINDOW 123 0 0 Left 0
WINDOW 39 0 0 Left 0
SYMATTR InstName V6
SYMATTR Value 3
SYMBOL OpAmps\\LT1213 -624 1184 M0
SYMATTR InstName U4
SYMBOL voltage -464 1280 R0
WINDOW 123 0 0 Left 0
WINDOW 39 0 0 Left 0
SYMATTR InstName V2
SYMATTR Value PULSE(0 5 0 100u 1n 1n 100u)
SYMBOL voltage -16 1248 R0
WINDOW 123 0 0 Left 0
WINDOW 39 0 0 Left 0
SYMATTR InstName V7
SYMATTR Value 4.5
TEXT -552 0 Left 2 !.tran 0 100m 0 1u
TEXT -600 -112 Left 5 ;Simple Feedback circuit
