Version 4
SHEET 1 948 1472
WIRE -752 64 -864 64
WIRE -592 64 -656 64
WIRE -400 64 -592 64
WIRE -288 64 -400 64
WIRE -144 64 -208 64
WIRE 0 64 -144 64
WIRE 144 64 0 64
WIRE -144 80 -144 64
WIRE 144 112 144 64
WIRE -864 128 -864 64
WIRE -400 128 -400 64
WIRE 0 128 0 64
WIRE -672 176 -672 112
WIRE -592 176 -592 64
WIRE -144 176 -144 160
WIRE 144 224 144 192
WIRE 368 224 144 224
WIRE -400 240 -400 192
WIRE -864 256 -864 208
WIRE 0 256 0 208
WIRE 144 256 144 224
WIRE -144 272 -144 256
WIRE -144 368 -144 336
WIRE 144 416 144 336
WIRE -256 448 -400 448
WIRE -160 448 -256 448
WIRE -96 448 -160 448
WIRE -96 464 -96 448
WIRE -400 480 -400 448
WIRE -800 512 -800 416
WIRE -160 560 -160 448
WIRE -256 576 -256 448
WIRE -256 576 -288 576
WIRE -400 624 -400 560
WIRE -352 624 -400 624
WIRE -400 672 -400 624
WIRE -400 672 -560 672
WIRE -800 688 -800 592
WIRE -288 720 -288 672
WIRE 64 720 -288 720
WIRE 192 720 64 720
WIRE -560 736 -560 672
WIRE -288 768 -288 720
WIRE 64 768 64 720
WIRE -784 784 -896 784
WIRE -624 784 -704 784
WIRE -400 816 -400 672
WIRE -352 816 -400 816
WIRE -288 912 -288 864
WIRE -160 912 -160 624
WIRE -160 912 -288 912
WIRE -96 912 -96 544
WIRE -96 912 -160 912
WIRE 64 912 64 848
WIRE 64 912 -96 912
WIRE 192 912 64 912
WIRE -560 944 -560 832
WIRE 368 1120 368 224
WIRE 368 1120 96 1120
WIRE 32 1136 -448 1136
WIRE -896 1152 -896 784
WIRE -512 1152 -896 1152
WIRE 224 1152 96 1152
WIRE -320 1168 -448 1168
WIRE 224 1232 224 1152
WIRE -320 1248 -320 1168
WIRE 224 1376 224 1312
WIRE -320 1392 -320 1328
FLAG -400 240 0
FLAG -144 368 0
FLAG 0 256 0
FLAG -864 256 0
FLAG -560 944 0
FLAG -672 176 Gate
FLAG -592 176 Source
FLAG 192 720 Gate
FLAG 192 912 Source
FLAG 144 416 0
FLAG 224 1376 0
FLAG -320 1392 0
FLAG -800 688 0
FLAG -800 416 Vcc
FLAG -480 1120 Vcc
FLAG 64 1104 Vcc
FLAG -480 1184 0
FLAG 64 1168 0
SYMBOL schottky -384 192 R180
WINDOW 0 24 64 Left 2
WINDOW 3 -152 5 Left 2
SYMATTR InstName D1
SYMATTR Value MBR20100CT
SYMATTR Description Diode
SYMATTR Type diode
SYMBOL voltage -864 112 R0
WINDOW 123 0 0 Left 0
WINDOW 39 0 0 Left 0
SYMATTR InstName V1
SYMATTR Value 50
SYMBOL ind -304 80 R270
WINDOW 0 32 56 VTop 2
WINDOW 3 5 56 VBottom 2
SYMATTR InstName L1
SYMATTR Value 3m
SYMBOL cap -160 272 R0
SYMATTR InstName C1
SYMATTR Value 100µ
SYMBOL res -16 112 R0
SYMATTR InstName R1
SYMATTR Value 20
SYMBOL nmos -752 112 R270
SYMATTR InstName M1
SYMATTR Value IRF1407
SYMBOL voltage -320 1232 R0
WINDOW 0 32 56 VTop 2
WINDOW 3 18 235 Bottom 2
WINDOW 123 0 0 Left 0
WINDOW 39 0 0 Left 0
SYMATTR InstName V2
SYMATTR Value PULSE(0 5 0 100u 1n 1n 100u)
SYMBOL res -160 160 R0
SYMATTR InstName ESR
SYMATTR Value 100m
SYMBOL ind -160 64 R0
SYMATTR InstName ESL
SYMATTR Value 10n
SYMBOL npn -352 576 R0
SYMATTR InstName Q1
SYMATTR Value 2N3904
SYMBOL pnp -352 768 R0
SYMATTR InstName Q2
SYMATTR Value 2N3906
SYMBOL res -416 464 R0
SYMATTR InstName R3
SYMATTR Value 1.2k
SYMBOL res -688 768 R90
WINDOW 0 0 56 VBottom 2
WINDOW 3 32 56 VTop 2
SYMATTR InstName R4
SYMATTR Value .5k
SYMBOL npn -624 736 R0
SYMATTR InstName Q3
SYMATTR Value 2N3904
SYMBOL voltage -96 448 R0
WINDOW 123 0 0 Left 0
WINDOW 39 0 0 Left 0
SYMATTR InstName V3
SYMATTR Value 20
SYMBOL cap -176 560 R0
SYMATTR InstName C2
SYMATTR Value .1µ
SYMBOL res 48 752 R0
SYMATTR InstName R2
SYMATTR Value 4.7k
SYMBOL res 128 96 R0
SYMATTR InstName R5
SYMATTR Value 10k
SYMBOL res 128 240 R0
SYMATTR InstName R6
SYMATTR Value 1k
SYMBOL OpAmps\\LT1213 64 1072 M0
SYMATTR InstName U1
SYMBOL voltage 224 1216 R0
WINDOW 123 0 0 Left 0
WINDOW 39 0 0 Left 0
SYMATTR InstName V4
SYMATTR Value 1.8
SYMBOL OpAmps\\LT1213 -480 1088 M0
SYMATTR InstName U2
SYMBOL voltage -800 496 R0
WINDOW 123 0 0 Left 0
WINDOW 39 0 0 Left 0
SYMATTR InstName V5
SYMATTR Value 5
TEXT -552 0 Left 2 !.tran 0 100m 0 1u
TEXT -624 -128 Left 5 ;Simple Feedback circuit [On\\Off control]
