Version 4
SHEET 1 1452 748
WIRE 160 -608 112 -608
WIRE 416 -608 240 -608
WIRE 416 -384 416 -608
WIRE 560 -384 416 -384
WIRE 560 -368 560 -384
WIRE 560 -272 560 -304
WIRE 560 -272 32 -272
WIRE -304 -256 -336 -256
WIRE -208 -256 -240 -256
WIRE 32 -256 32 -272
WIRE 128 -224 96 -224
WIRE 256 -224 192 -224
WIRE 416 -208 416 -384
WIRE 560 -192 560 -272
WIRE -336 -176 -336 -256
WIRE -336 -176 -384 -176
WIRE -304 -176 -336 -176
WIRE -208 -176 -208 -256
WIRE -208 -176 -224 -176
WIRE -176 -176 -208 -176
WIRE 32 -176 -16 -176
WIRE -384 -144 -384 -176
WIRE 96 -128 96 -224
WIRE 96 -128 -16 -128
WIRE 128 -128 96 -128
WIRE 256 -128 256 -224
WIRE 256 -128 208 -128
WIRE 304 -128 256 -128
WIRE 336 -128 304 -128
WIRE 368 -128 336 -128
WIRE 304 -96 304 -128
WIRE 336 -96 336 -128
WIRE -176 -80 -192 -80
WIRE 32 -80 -16 -80
WIRE 416 -64 416 -112
WIRE 560 -64 560 -128
WIRE 560 -64 416 -64
WIRE 96 -48 96 -128
WIRE 144 -48 96 -48
WIRE 256 -48 256 -128
WIRE 256 -48 208 -48
WIRE -384 -16 -384 -64
WIRE -208 -16 -208 -112
WIRE -208 -16 -384 -16
WIRE -192 -16 -192 -80
WIRE -192 -16 -208 -16
WIRE 32 0 32 -80
WIRE 304 0 304 -32
WIRE 304 0 32 0
WIRE 336 0 336 -16
WIRE 336 0 304 0
WIRE 416 0 416 -64
WIRE 416 0 336 0
WIRE -384 16 -384 -16
WIRE 416 144 416 0
WIRE 544 144 416 144
WIRE 688 144 624 144
WIRE 832 144 688 144
WIRE 128 160 112 160
WIRE 224 160 192 160
WIRE 688 176 688 144
WIRE 416 208 416 144
WIRE 560 208 416 208
WIRE 832 208 832 144
WIRE 112 256 112 160
WIRE 128 256 112 256
WIRE 224 256 224 160
WIRE 224 256 192 256
WIRE 416 256 416 208
WIRE 560 304 560 208
WIRE -544 320 -576 320
WIRE -448 320 -480 320
WIRE -64 336 -144 336
WIRE 48 336 -64 336
WIRE 112 336 112 256
WIRE 128 336 112 336
WIRE 224 336 224 256
WIRE 224 336 208 336
WIRE 288 336 224 336
WIRE 336 336 288 336
WIRE 368 336 336 336
WIRE 688 336 688 240
WIRE 832 336 832 288
WIRE 288 368 288 336
WIRE 336 368 336 336
WIRE -576 416 -576 320
WIRE -576 416 -608 416
WIRE -544 416 -576 416
WIRE -448 416 -448 320
WIRE -448 416 -464 416
WIRE -432 416 -448 416
WIRE -352 416 -432 416
WIRE -144 416 -144 336
WIRE -144 416 -192 416
WIRE 416 448 416 352
WIRE 560 448 560 368
WIRE 560 448 416 448
WIRE 112 464 112 336
WIRE 112 464 -192 464
WIRE 288 464 288 432
WIRE 288 464 160 464
WIRE 336 464 336 448
WIRE 336 464 288 464
WIRE 416 464 416 448
WIRE 416 464 336 464
WIRE -608 480 -608 416
WIRE -432 512 -432 480
WIRE -352 512 -432 512
WIRE -144 512 -192 512
WIRE 416 544 416 464
WIRE -144 576 -144 512
WIRE -64 576 -64 416
WIRE -64 576 -144 576
WIRE 48 576 48 400
WIRE 48 576 -64 576
WIRE 160 576 160 464
WIRE 160 576 48 576
WIRE -608 624 -608 560
WIRE -432 624 -432 512
WIRE -64 640 -64 576
FLAG 416 544 0
FLAG 688 336 0
FLAG 832 336 0
FLAG 112 -608 0
FLAG 832 144 vout
FLAG -384 16 0
FLAG -608 624 0
FLAG -432 624 0
FLAG -64 640 0
SYMBOL voltage 256 -608 R90
WINDOW 123 0 0 Left 0
WINDOW 39 0 0 Left 0
SYMATTR InstName V1
SYMATTR Value 50
SYMBOL ind 528 160 R270
WINDOW 0 32 56 VTop 2
WINDOW 3 5 56 VBottom 2
SYMATTR InstName L1
SYMATTR Value 3m
SYMBOL cap 672 176 R0
SYMATTR InstName C1
SYMATTR Value 100µ
SYMBOL res 816 192 R0
SYMATTR InstName R1
SYMATTR Value 20
SYMBOL nmos 368 -208 R0
SYMATTR InstName M1
SYMATTR Value IRF1407
SYMBOL voltage -384 -160 R0
WINDOW 0 32 56 VTop 2
WINDOW 3 -32 56 VBottom 2
WINDOW 123 0 0 Left 0
WINDOW 39 0 0 Left 0
SYMATTR InstName V2
SYMATTR Value PULSE(0 5 0 1n 1n 50u 100u)
SYMBOL res 320 -112 R0
SYMATTR InstName R5
SYMATTR Value 4.7k
SYMBOL res 112 -112 R270
WINDOW 0 32 56 VTop 2
WINDOW 3 0 56 VBottom 2
SYMATTR InstName R6
SYMATTR Value 10
SYMBOL nmos 368 256 R0
SYMATTR InstName M2
SYMATTR Value IRF1407
SYMBOL voltage -608 464 R0
WINDOW 0 32 56 VTop 2
WINDOW 3 -32 56 VBottom 2
WINDOW 123 0 0 Left 0
WINDOW 39 0 0 Left 0
SYMATTR InstName V3
SYMATTR Value PULSE(5 0 0 1n 1n 50u 100u)
SYMBOL res -448 400 R90
WINDOW 0 0 56 VBottom 2
WINDOW 3 32 56 VTop 2
SYMATTR InstName R7
SYMATTR Value .5k
SYMBOL ZZZ\\OPTO\\OPTO\\TLP350 -304 464 R0
SYMATTR InstName U2
SYMBOL voltage -64 320 R0
WINDOW 0 24 26 Left 2
WINDOW 123 0 0 Left 0
WINDOW 39 0 0 Left 0
SYMATTR InstName V4
SYMATTR Value 20
SYMBOL cap 32 336 R0
SYMATTR InstName C3
SYMATTR Value 1µ
SYMBOL res 320 352 R0
SYMATTR InstName R8
SYMATTR Value 4.7k
SYMBOL schottky 192 240 R90
WINDOW 0 0 32 VBottom 2
WINDOW 3 32 32 VTop 2
SYMATTR InstName D3
SYMATTR Value MBR2030CT
SYMATTR Description Diode
SYMATTR Type diode
SYMBOL res 224 320 R90
WINDOW 0 0 56 VBottom 2
WINDOW 3 32 56 VTop 2
SYMATTR InstName R9
SYMATTR Value 10
SYMBOL res -208 -192 R90
WINDOW 0 0 56 VBottom 2
WINDOW 3 32 56 VTop 2
SYMATTR InstName R3
SYMATTR Value .5k
SYMBOL cap 544 -192 R0
SYMATTR InstName C_BS
SYMATTR Value .1µ
SYMBOL diode 544 -368 R0
SYMATTR InstName D_BS
SYMATTR Value 1N4001
SYMBOL cap 192 -240 R90
WINDOW 0 0 32 VBottom 2
WINDOW 3 32 32 VTop 2
SYMATTR InstName C2
SYMATTR Value 100n
SYMBOL cap 192 144 R90
WINDOW 0 0 32 VBottom 2
WINDOW 3 32 32 VTop 2
SYMATTR InstName C4
SYMATTR Value 100n
SYMBOL schottky 576 368 R180
WINDOW 0 24 64 Left 2
WINDOW 3 24 0 Left 2
SYMATTR InstName D1
SYMATTR Value MBR20100CT
SYMATTR Description Diode
SYMATTR Type diode
SYMBOL ZZZ\\OPTO\\OPTO\\TLP350 -128 -128 R0
SYMATTR InstName U1
SYMBOL res 16 -272 R0
SYMATTR InstName R2
SYMATTR Value .5k
SYMBOL zener 320 -32 R180
WINDOW 0 24 64 Left 2
WINDOW 3 -49 -57 Left 2
SYMATTR InstName D4
SYMATTR Value BZX84C20VL
SYMATTR Description Diode
SYMATTR Type diode
SYMBOL cap -448 416 R0
SYMATTR InstName C5
SYMATTR Value .022µ
SYMBOL cap -224 -176 R0
SYMATTR InstName C6
SYMATTR Value .022µ
SYMBOL zener 304 432 R180
WINDOW 0 24 64 Left 2
WINDOW 3 -49 -57 Left 2
SYMATTR InstName D5
SYMATTR Value BZX84C20VL
SYMATTR Description Diode
SYMATTR Type diode
SYMBOL diode -240 -272 R90
WINDOW 0 0 32 VBottom 2
WINDOW 3 32 32 VTop 2
SYMATTR InstName D6
SYMATTR Value 1N4148
SYMBOL diode -480 304 R90
WINDOW 0 0 32 VBottom 2
WINDOW 3 32 32 VTop 2
SYMATTR InstName D8
SYMATTR Value 1N4148
SYMBOL schottky 208 -64 R90
WINDOW 0 0 32 VBottom 2
WINDOW 3 32 32 VTop 2
SYMATTR InstName D7
SYMATTR Value MBR2030CT
SYMATTR Description Diode
SYMATTR Type diode
TEXT -64 -440 Left 2 !.tran 0 100m 0 .001
