Version 4
SHEET 1 1648 776
WIRE 160 -608 112 -608
WIRE 416 -608 240 -608
WIRE 416 -384 416 -608
WIRE 560 -384 416 -384
WIRE 560 -368 560 -384
WIRE 560 -272 560 -304
WIRE 560 -272 32 -272
WIRE -656 -256 -688 -256
WIRE -560 -256 -592 -256
WIRE 128 -224 96 -224
WIRE 256 -224 192 -224
WIRE 416 -208 416 -384
WIRE 560 -192 560 -272
WIRE -688 -176 -688 -256
WIRE -688 -176 -736 -176
WIRE -656 -176 -688 -176
WIRE -560 -176 -560 -256
WIRE -560 -176 -576 -176
WIRE -368 -176 -560 -176
WIRE -128 -176 -176 -176
WIRE 32 -176 32 -272
WIRE 32 -176 -128 -176
WIRE -736 -144 -736 -176
WIRE 96 -128 96 -224
WIRE 96 -128 -176 -128
WIRE 128 -128 96 -128
WIRE 256 -128 256 -224
WIRE 256 -128 208 -128
WIRE 304 -128 256 -128
WIRE 336 -128 304 -128
WIRE 368 -128 336 -128
WIRE 304 -96 304 -128
WIRE 336 -96 336 -128
WIRE -560 -80 -560 -112
WIRE -368 -80 -560 -80
WIRE 32 -80 -176 -80
WIRE 416 -64 416 -112
WIRE 560 -64 560 -128
WIRE 560 -64 416 -64
WIRE 96 -48 96 -128
WIRE 144 -48 96 -48
WIRE 256 -48 256 -128
WIRE 256 -48 208 -48
WIRE -736 -16 -736 -64
WIRE -560 -16 -560 -80
WIRE -560 -16 -736 -16
WIRE 32 0 32 -80
WIRE 304 0 304 -32
WIRE 304 0 32 0
WIRE 336 0 336 -16
WIRE 336 0 304 0
WIRE 416 0 416 -64
WIRE 416 0 336 0
WIRE -736 16 -736 -16
WIRE 416 144 416 0
WIRE 544 144 416 144
WIRE 688 144 624 144
WIRE 832 144 688 144
WIRE 128 160 112 160
WIRE 224 160 192 160
WIRE 688 176 688 144
WIRE 416 208 416 144
WIRE 560 208 416 208
WIRE 832 208 832 144
WIRE 112 256 112 160
WIRE 128 256 112 256
WIRE 224 256 224 160
WIRE 224 256 192 256
WIRE 416 256 416 208
WIRE 560 304 560 208
WIRE -784 320 -816 320
WIRE -688 320 -720 320
WIRE -272 336 -304 336
WIRE -80 336 -192 336
WIRE 48 336 -80 336
WIRE 112 336 112 256
WIRE 128 336 112 336
WIRE 224 336 224 256
WIRE 224 336 208 336
WIRE 288 336 224 336
WIRE 336 336 288 336
WIRE 368 336 336 336
WIRE 688 336 688 240
WIRE 832 336 832 288
WIRE 288 368 288 336
WIRE 336 368 336 336
WIRE -816 416 -816 320
WIRE -816 416 -848 416
WIRE -784 416 -816 416
WIRE -688 416 -688 320
WIRE -688 416 -704 416
WIRE -672 416 -688 416
WIRE -592 416 -672 416
WIRE -304 416 -304 336
WIRE -304 416 -400 416
WIRE 416 448 416 352
WIRE 560 448 560 368
WIRE 560 448 416 448
WIRE 112 464 112 336
WIRE 112 464 -400 464
WIRE 288 464 288 432
WIRE 288 464 160 464
WIRE 336 464 336 448
WIRE 336 464 288 464
WIRE 416 464 416 448
WIRE 416 464 336 464
WIRE -848 480 -848 416
WIRE -672 512 -672 480
WIRE -592 512 -672 512
WIRE -304 512 -400 512
WIRE 416 544 416 464
WIRE -304 576 -304 512
WIRE -64 576 -304 576
WIRE 48 576 48 400
WIRE 48 576 -64 576
WIRE 160 576 160 464
WIRE 160 576 48 576
WIRE -848 624 -848 560
WIRE -672 624 -672 512
WIRE -64 640 -64 576
FLAG 416 544 0
FLAG 688 336 0
FLAG 832 336 0
FLAG 112 -608 0
FLAG 832 144 vout
FLAG -736 16 0
FLAG -848 624 0
FLAG -672 624 0
FLAG -64 640 0
FLAG 416 -608 Vsupply
FLAG -128 -176 Vsupply
FLAG -80 336 Vsupply
SYMBOL voltage 256 -608 R90
WINDOW 123 0 0 Left 0
WINDOW 39 0 0 Left 0
SYMATTR InstName V1
SYMATTR Value 50
SYMBOL ind 528 160 R270
WINDOW 0 32 56 VTop 2
WINDOW 3 5 56 VBottom 2
SYMATTR InstName L1
SYMATTR Value 3m
SYMBOL cap 672 176 R0
SYMATTR InstName C1
SYMATTR Value 100µ
SYMBOL res 816 192 R0
SYMATTR InstName R1
SYMATTR Value 5
SYMBOL nmos 368 -208 R0
SYMATTR InstName M1
SYMATTR Value IRF1407
SYMBOL voltage -736 -160 R0
WINDOW 0 32 56 VTop 2
WINDOW 3 -32 56 VBottom 2
WINDOW 123 0 0 Left 0
WINDOW 39 0 0 Left 0
SYMATTR InstName V2
SYMATTR Value PULSE(0 5 0 1n 1n 50u 100u)
SYMBOL res 320 -112 R0
SYMATTR InstName R5
SYMATTR Value 4.7k
SYMBOL res 112 -112 R270
WINDOW 0 32 56 VTop 2
WINDOW 3 0 56 VBottom 2
SYMATTR InstName R6
SYMATTR Value 10
SYMBOL nmos 368 256 R0
SYMATTR InstName M2
SYMATTR Value IRF1407
SYMBOL voltage -848 464 R0
WINDOW 0 32 56 VTop 2
WINDOW 3 -32 56 VBottom 2
WINDOW 123 0 0 Left 0
WINDOW 39 0 0 Left 0
SYMATTR InstName V3
SYMATTR Value PULSE(5 0 0 1n 1n 50u 100u)
SYMBOL res -688 400 R90
WINDOW 0 0 56 VBottom 2
WINDOW 3 32 56 VTop 2
SYMATTR InstName R7
SYMATTR Value .5k
SYMBOL cap 32 336 R0
SYMATTR InstName C3
SYMATTR Value 1µ
SYMBOL res 320 352 R0
SYMATTR InstName R8
SYMATTR Value 4.7k
SYMBOL schottky 192 240 R90
WINDOW 0 0 32 VBottom 2
WINDOW 3 32 32 VTop 2
SYMATTR InstName D3
SYMATTR Value MBR20100CT
SYMATTR Description Diode
SYMATTR Type diode
SYMBOL res 224 320 R90
WINDOW 0 0 56 VBottom 2
WINDOW 3 32 56 VTop 2
SYMATTR InstName R9
SYMATTR Value 10
SYMBOL res -560 -192 R90
WINDOW 0 0 56 VBottom 2
WINDOW 3 32 56 VTop 2
SYMATTR InstName R3
SYMATTR Value .5k
SYMBOL cap 544 -192 R0
SYMATTR InstName C_BS
SYMATTR Value .1µ
SYMBOL cap 192 -240 R90
WINDOW 0 0 32 VBottom 2
WINDOW 3 32 32 VTop 2
SYMATTR InstName C2
SYMATTR Value 100n
SYMBOL cap 192 144 R90
WINDOW 0 0 32 VBottom 2
WINDOW 3 32 32 VTop 2
SYMATTR InstName C4
SYMATTR Value 100n
SYMBOL schottky 576 368 R180
WINDOW 0 24 64 Left 2
WINDOW 3 24 0 Left 2
SYMATTR InstName D1
SYMATTR Value MBR20100CT
SYMATTR Description Diode
SYMATTR Type diode
SYMBOL zener 320 -32 R180
WINDOW 0 24 64 Left 2
WINDOW 3 -49 -57 Left 2
SYMATTR InstName D4
SYMATTR Value BZX84B20VLY
SYMATTR Description Diode
SYMATTR Type diode
SYMBOL cap -688 416 R0
SYMATTR InstName C5
SYMATTR Value .022µ
SYMBOL cap -576 -176 R0
SYMATTR InstName C6
SYMATTR Value .022µ
SYMBOL diode -592 -272 R90
WINDOW 0 0 32 VBottom 2
WINDOW 3 32 32 VTop 2
SYMATTR InstName D6
SYMATTR Value 1N4148
SYMBOL diode -720 304 R90
WINDOW 0 0 32 VBottom 2
WINDOW 3 32 32 VTop 2
SYMATTR InstName D8
SYMATTR Value 1N4148
SYMBOL zener 304 432 R180
WINDOW 0 24 64 Left 2
WINDOW 3 -49 -57 Left 2
SYMATTR InstName D2
SYMATTR Value BZX84B20VLY
SYMATTR Description Diode
SYMATTR Type diode
SYMBOL schottky 208 -64 R90
WINDOW 0 0 32 VBottom 2
WINDOW 3 32 32 VTop 2
SYMATTR InstName D5
SYMATTR Value MBR20100CT
SYMATTR Description Diode
SYMATTR Type diode
SYMBOL schottky 544 -368 R0
SYMATTR InstName D7
SYMATTR Value MBR20100CT
SYMATTR Description Diode
SYMATTR Type diode
SYMBOL ZZZ\\OPTO\\OPTO\\TLP5702 -272 -128 R0
SYMATTR InstName U1
SYMBOL ZZZ\\OPTO\\OPTO\\TLP5702 -496 464 R0
SYMATTR InstName U2
SYMBOL res -176 320 R90
WINDOW 0 0 56 VBottom 2
WINDOW 3 32 56 VTop 2
SYMATTR InstName R2
SYMATTR Value 2k
TEXT -64 -440 Left 2 !.tran 0 100m 0 .001
