Version 4
SHEET 1 1452 924
WIRE 656 -384 416 -384
WIRE 656 -240 656 -384
WIRE 416 -208 416 -384
WIRE 416 -208 336 -208
WIRE 416 -160 416 -208
WIRE 336 -112 336 -208
WIRE 656 -112 656 -160
WIRE 288 -32 224 -32
WIRE 416 -16 416 -80
WIRE 224 112 224 -32
WIRE 336 112 336 -16
WIRE 336 112 224 112
WIRE 416 112 416 64
WIRE 416 112 336 112
WIRE 128 160 112 160
WIRE 224 160 192 160
WIRE 112 256 112 160
WIRE 128 256 112 256
WIRE 224 256 224 160
WIRE 224 256 192 256
WIRE 416 256 416 112
WIRE -64 336 -144 336
WIRE 48 336 -64 336
WIRE 112 336 112 256
WIRE 128 336 112 336
WIRE 224 336 224 256
WIRE 224 336 208 336
WIRE 288 336 224 336
WIRE 336 336 288 336
WIRE 368 336 336 336
WIRE 288 368 288 336
WIRE 336 368 336 336
WIRE -544 416 -608 416
WIRE -352 416 -464 416
WIRE -144 416 -144 336
WIRE -144 416 -160 416
WIRE 112 464 112 336
WIRE 112 464 -160 464
WIRE 288 464 288 432
WIRE 288 464 160 464
WIRE 336 464 336 448
WIRE 336 464 288 464
WIRE 416 464 416 352
WIRE 416 464 336 464
WIRE -608 480 -608 416
WIRE -352 512 -432 512
WIRE -144 512 -160 512
WIRE 416 544 416 464
WIRE -144 576 -144 512
WIRE -64 576 -64 416
WIRE -64 576 -144 576
WIRE 48 576 48 400
WIRE 48 576 -64 576
WIRE 160 576 160 464
WIRE 160 576 48 576
WIRE -608 624 -608 560
WIRE -432 624 -432 512
WIRE -64 640 -64 576
FLAG 416 544 0
FLAG 656 -112 0
FLAG -608 624 0
FLAG -432 624 0
FLAG -64 640 0
SYMBOL voltage 656 -256 R0
WINDOW 123 0 0 Left 0
WINDOW 39 0 0 Left 0
SYMATTR InstName V1
SYMATTR Value 50
SYMBOL nmos 288 -112 R0
WINDOW 3 -130 56 Left 2
SYMATTR InstName M1
SYMATTR Value IRF7403
SYMBOL nmos 368 256 R0
SYMATTR InstName M2
SYMATTR Value IRF1407
SYMBOL voltage -64 320 R0
WINDOW 0 24 26 Left 2
WINDOW 123 0 0 Left 0
WINDOW 39 0 0 Left 0
SYMATTR InstName V4
SYMATTR Value 20
SYMBOL cap 32 336 R0
SYMATTR InstName C3
SYMATTR Value 1µ
SYMBOL res 320 352 R0
SYMATTR InstName R8
SYMATTR Value 4.7k
SYMBOL schottky 192 240 R90
WINDOW 0 0 32 VBottom 2
WINDOW 3 32 32 VTop 2
SYMATTR InstName D3
SYMATTR Value MBR2030CT
SYMATTR Description Diode
SYMATTR Type diode
SYMBOL res 224 320 R90
WINDOW 0 0 56 VBottom 2
WINDOW 3 32 56 VTop 2
SYMATTR InstName R9
SYMATTR Value 10
SYMBOL cap 192 144 R90
WINDOW 0 0 32 VBottom 2
WINDOW 3 32 32 VTop 2
SYMATTR InstName C4
SYMATTR Value 100n
SYMBOL zener 304 432 R180
WINDOW 0 24 64 Left 2
WINDOW 3 -49 -57 Left 2
SYMATTR InstName D5
SYMATTR Value BZX84C20VL
SYMATTR Description Diode
SYMATTR Type diode
SYMBOL ind 400 -176 R0
SYMATTR InstName L2
SYMATTR Value 1m
SYMBOL res 400 -32 R0
SYMATTR InstName R2
SYMATTR Value .001
SYMBOL voltage -608 464 R0
WINDOW 0 32 56 VTop 2
WINDOW 3 363 226 Bottom 2
WINDOW 123 0 0 Left 0
WINDOW 39 0 0 Left 0
SYMATTR InstName V3
SYMATTR Value PWL(0 0 4.99u 0 5u 5 34.99u 5 35u 0 39.99u 0 40u 5 49.99u 5 50u 0)
SYMBOL res -448 400 R90
WINDOW 0 0 56 VBottom 2
WINDOW 3 32 56 VTop 2
SYMATTR InstName R1
SYMATTR Value 330
SYMBOL ZZZ\\OPTO\\OPTO\\TLP5702 -256 464 R0
SYMATTR InstName U1
TEXT -384 128 Left 2 !.tran 0 70u 0 .001
