Version 4
SHEET 1 1104 1020
WIRE -1680 16 -1696 16
WIRE -1584 16 -1616 16
WIRE -1968 64 -2048 64
WIRE -1888 64 -1968 64
WIRE -752 64 -864 64
WIRE -592 64 -656 64
WIRE -400 64 -592 64
WIRE -288 64 -400 64
WIRE -144 64 -208 64
WIRE 0 64 -144 64
WIRE 160 64 0 64
WIRE -1968 80 -1968 64
WIRE -1696 112 -1696 16
WIRE -1696 112 -1712 112
WIRE -1680 112 -1696 112
WIRE -1584 112 -1584 16
WIRE -1584 112 -1600 112
WIRE -1536 112 -1584 112
WIRE -1440 112 -1536 112
WIRE -1344 112 -1440 112
WIRE -864 128 -864 64
WIRE -400 128 -400 64
WIRE -144 128 -144 64
WIRE 0 128 0 64
WIRE -2432 144 -2480 144
WIRE -2256 144 -2352 144
WIRE -2048 144 -2048 64
WIRE -2048 144 -2096 144
WIRE -1536 144 -1536 112
WIRE -1440 144 -1440 112
WIRE -672 176 -672 112
WIRE -592 176 -592 64
WIRE -1712 192 -1712 112
WIRE -1712 192 -2096 192
WIRE -144 224 -144 192
WIRE -2256 240 -2320 240
WIRE -1968 240 -1968 144
WIRE -1968 240 -2096 240
WIRE -1888 240 -1888 144
WIRE -1888 240 -1968 240
WIRE -1536 240 -1536 224
WIRE -1536 240 -1888 240
WIRE -1440 240 -1440 208
WIRE -1440 240 -1536 240
WIRE -1344 240 -1440 240
WIRE -400 240 -400 192
WIRE -864 256 -864 208
WIRE 0 256 0 208
WIRE -2320 304 -2320 240
WIRE 160 320 160 64
WIRE 288 320 160 320
WIRE 288 352 288 320
WIRE -176 432 -288 432
WIRE 32 432 -112 432
WIRE 160 432 160 320
WIRE 288 480 288 432
WIRE -288 496 -288 432
WIRE -256 496 -288 496
WIRE -96 496 -176 496
WIRE 32 496 32 432
WIRE 32 496 -32 496
WIRE 160 576 160 512
WIRE 288 576 288 544
WIRE 288 576 160 576
WIRE 32 608 32 496
WIRE 32 608 -48 608
WIRE 160 608 160 576
WIRE 160 608 32 608
WIRE -288 624 -288 496
WIRE -288 624 -528 624
WIRE -112 624 -288 624
WIRE -2480 640 -2480 144
WIRE -592 640 -2480 640
WIRE 0 640 -48 640
WIRE 160 640 160 608
WIRE -416 656 -528 656
WIRE -416 688 -416 656
WIRE 0 688 0 640
WIRE 160 784 160 720
WIRE -416 816 -416 768
WIRE 0 816 0 768
FLAG -400 240 0
FLAG -144 224 0
FLAG 0 256 0
FLAG -864 256 0
FLAG -672 176 Gate
FLAG -592 176 Source
FLAG -1344 112 Gate
FLAG -1344 240 Source
FLAG -2320 304 0
FLAG 160 784 0
FLAG 0 816 0
FLAG -416 816 0
SYMBOL schottky -384 192 R180
WINDOW 0 24 64 Left 2
WINDOW 3 -152 5 Left 2
SYMATTR InstName D1
SYMATTR Value MBR20100CT
SYMATTR Description Diode
SYMATTR Type diode
SYMBOL voltage -864 112 R0
WINDOW 123 0 0 Left 0
WINDOW 39 0 0 Left 0
SYMATTR InstName V1
SYMATTR Value 50
SYMBOL ind -304 80 R270
WINDOW 0 32 56 VTop 2
WINDOW 3 5 56 VBottom 2
SYMATTR InstName L1
SYMATTR Value 3m
SYMBOL cap -160 128 R0
SYMATTR InstName C1
SYMATTR Value 100µ
SYMBOL res -16 112 R0
SYMATTR InstName R1
SYMATTR Value 20
SYMBOL nmos -752 112 R270
SYMATTR InstName M1
SYMATTR Value IRF540N
SYMBOL res -2336 128 R90
WINDOW 0 0 56 VBottom 2
WINDOW 3 32 56 VTop 2
SYMATTR InstName R4
SYMATTR Value 330
SYMBOL voltage -1888 48 R0
WINDOW 123 0 0 Left 0
WINDOW 39 0 0 Left 0
SYMATTR InstName V3
SYMATTR Value 20
SYMBOL cap -1984 80 R0
SYMATTR InstName C2
SYMATTR Value .1µ
SYMBOL res -1552 128 R0
SYMATTR InstName R2
SYMATTR Value 4.7k
SYMBOL ZZZ\\OPTO\\OPTO\\TLP350 -2208 192 R0
SYMATTR InstName U1
SYMBOL zener -1424 208 R180
WINDOW 0 24 64 Left 2
WINDOW 3 -156 26 Left 2
SYMATTR InstName D2
SYMATTR Value BZX84B20VL
SYMATTR Description Diode
SYMATTR Type diode
SYMBOL res -1584 96 R90
WINDOW 0 0 56 VBottom 2
WINDOW 3 32 56 VTop 2
SYMATTR InstName R3
SYMATTR Value 10
SYMBOL diode -1616 0 R90
WINDOW 0 0 32 VBottom 2
WINDOW 3 32 32 VTop 2
SYMATTR InstName D3
SYMATTR Value 1N4001
SYMBOL res 144 416 R0
SYMATTR InstName R5
SYMBOL res 144 624 R0
SYMATTR InstName R6
SYMBOL res 272 336 R0
SYMATTR InstName R7
SYMBOL cap 272 480 R0
SYMATTR InstName C3
SYMBOL OpAmps\\LT1037 -80 560 M0
SYMATTR InstName U4
SYMBOL voltage 0 672 R0
SYMATTR InstName V4
SYMBOL cap -112 416 R90
WINDOW 0 0 32 VBottom 2
WINDOW 3 32 32 VTop 2
SYMATTR InstName C4
SYMBOL cap -32 480 R90
WINDOW 0 0 32 VBottom 2
WINDOW 3 32 32 VTop 2
SYMATTR InstName C5
SYMBOL res -160 480 R90
WINDOW 0 0 56 VBottom 2
WINDOW 3 32 56 VTop 2
SYMATTR InstName R8
SYMBOL OpAmps\\LT1037 -560 704 R180
SYMATTR InstName U3
SYMBOL voltage -416 672 R0
SYMATTR InstName V5
TEXT -552 0 Left 2 !.tran 0 100m 0 1u
