Version 4
SHEET 1 1416 680
WIRE 208 -64 -464 -64
WIRE 576 -64 208 -64
WIRE 496 -16 -48 -16
WIRE 208 32 208 -64
WIRE 496 64 496 -16
WIRE 576 64 576 16
WIRE 576 64 496 64
WIRE -48 96 -48 -16
WIRE 48 96 -48 96
WIRE 416 96 368 96
WIRE 576 96 576 64
WIRE -464 112 -464 -64
WIRE -208 176 -240 176
WIRE -64 176 -128 176
WIRE 48 176 0 176
WIRE 528 176 368 176
WIRE 48 256 -32 256
WIRE 416 256 416 160
WIRE 416 256 368 256
WIRE 576 256 576 192
WIRE 576 256 416 256
WIRE 720 256 576 256
WIRE 912 256 800 256
WIRE 1040 256 912 256
WIRE 1168 256 1040 256
WIRE 1360 256 1168 256
WIRE -464 288 -464 192
WIRE 912 288 912 256
WIRE 1168 288 1168 256
WIRE 1040 304 1040 256
WIRE 1360 304 1360 256
WIRE 576 320 576 256
WIRE 208 384 208 320
WIRE 912 400 912 368
WIRE 912 400 784 400
WIRE 1040 400 1040 368
WIRE 1040 400 912 400
WIRE 1168 400 1168 352
WIRE 576 416 576 384
WIRE 912 416 912 400
WIRE 1360 416 1360 384
WIRE -32 496 -32 256
WIRE 784 496 784 400
WIRE 784 496 -32 496
WIRE 912 560 912 496
FLAG 1360 416 0
FLAG 1168 400 0
FLAG 912 560 0
FLAG 576 416 0
FLAG 208 384 0
FLAG -464 288 0
FLAG -240 176 0
FLAG -464 -64 In
FLAG 1360 256 Out
SYMBOL PowerProducts\\LTC1624 208 176 R0
SYMATTR InstName U1
SYMBOL nmos 528 96 R0
SYMATTR InstName M1
SYMATTR Value Si4412DY
SYMBOL schottky 592 384 R180
WINDOW 0 24 64 Left 2
WINDOW 3 24 0 Left 2
SYMATTR InstName D1
SYMATTR Value PDS760
SYMATTR Description Diode
SYMATTR Type diode
SYMBOL ind 704 272 R270
WINDOW 0 32 56 VTop 2
WINDOW 3 5 56 VBottom 2
SYMATTR InstName L1
SYMATTR Value 10µ
SYMBOL res 560 -80 R0
SYMATTR InstName R1
SYMATTR Value .033
SYMBOL voltage -464 96 R0
WINDOW 123 0 0 Left 0
WINDOW 39 0 0 Left 0
SYMATTR InstName V1
SYMATTR Value PWL(0 0 1u 12)
SYMBOL res 896 272 R0
SYMATTR InstName R2
SYMATTR Value 35.4k
SYMBOL res -112 160 R90
WINDOW 0 0 56 VBottom 2
WINDOW 3 32 56 VTop 2
SYMATTR InstName R3
SYMATTR Value 6.8k
SYMBOL res 1344 288 R0
SYMATTR InstName R4
SYMATTR Value 3
SYMBOL cap 400 96 R0
SYMATTR InstName C2
SYMATTR Value .1µ
SYMBOL cap 0 160 R90
WINDOW 0 0 32 VBottom 2
WINDOW 3 32 32 VTop 2
SYMATTR InstName C3
SYMATTR Value 220p
SYMBOL res 896 400 R0
SYMATTR InstName R5
SYMATTR Value 11k
SYMBOL cap 1152 288 R0
SYMATTR InstName C4
SYMATTR Value 100µ
SYMBOL cap 1024 304 R0
SYMATTR InstName C1
SYMATTR Value 330p
TEXT 472 544 Left 2 !.tran 1.2m
