Version 4
SHEET 1 2192 960
WIRE 656 -16 144 -16
WIRE 656 32 656 -16
WIRE 144 112 144 -16
WIRE 656 144 656 112
WIRE 816 144 656 144
WIRE 656 176 656 144
WIRE 480 208 336 208
WIRE 576 208 560 208
WIRE 336 224 336 208
WIRE 576 256 576 208
WIRE 608 256 576 256
WIRE 144 304 144 192
WIRE 336 336 336 304
WIRE 656 352 656 272
WIRE 1456 384 1408 384
WIRE 1328 400 1328 384
WIRE 1072 496 1056 496
WIRE 1136 496 1072 496
WIRE 1264 496 1216 496
WIRE 1328 496 1264 496
WIRE 1456 496 1456 384
WIRE 1456 496 1408 496
WIRE 1552 496 1456 496
WIRE 1056 544 1056 496
WIRE 1552 576 1552 496
WIRE 1056 736 1056 624
WIRE 1552 736 1552 656
FLAG 144 304 0
FLAG 336 336 0
FLAG 656 352 0
FLAG 816 144 Out
FLAG 1056 736 0
FLAG 1552 736 0
FLAG 1072 496 Tj
FLAG 1264 496 Tc
FLAG 576 208 G
SYMBOL voltage 144 96 R0
WINDOW 123 0 0 Left 0
WINDOW 39 0 0 Left 0
SYMATTR InstName V1
SYMATTR Value 100
SYMBOL voltage 336 208 R0
WINDOW 123 0 0 Left 0
WINDOW 39 0 0 Left 0
SYMATTR InstName V2
SYMATTR Value 10
SYMBOL res 640 16 R0
SYMATTR InstName R1
SYMATTR Value 5
SYMBOL res 576 192 R90
WINDOW 0 0 56 VBottom 2
WINDOW 3 32 56 VTop 2
SYMATTR InstName R2
SYMATTR Value 50
SYMBOL nmos 608 176 R0
SYMATTR InstName M1
SYMATTR Value IPB035N08N3 RthetaJA=62 Tambient=25
SYMBOL res 1120 512 R270
WINDOW 0 32 56 VTop 2
WINDOW 3 0 56 VBottom 2
SYMATTR InstName R3
SYMATTR Value 1
SYMBOL res 1312 512 R270
WINDOW 0 32 56 VTop 2
WINDOW 3 0 56 VBottom 2
SYMATTR InstName R4
SYMATTR Value 61
SYMBOL res 1312 400 R270
WINDOW 0 32 56 VTop 2
WINDOW 3 0 56 VBottom 2
SYMATTR InstName R5
SYMATTR Value 20
SYMBOL voltage 1552 560 R0
WINDOW 123 0 0 Left 0
WINDOW 39 0 0 Left 0
SYMATTR InstName Ta
SYMATTR Value 25
SYMBOL f 1056 624 R180
WINDOW 0 24 80 Left 2
WINDOW 3 24 0 Left 2
SYMATTR InstName F1
SYMATTR Value V(Out) * Id(M1) + V(G) * Ig(M1)
SYMBOL SOAtherm-HeatSink 1488 208 R0
SYMATTR InstName U1
TEXT 1144 16 Left 2 !.options SOAaccounting=1 ;turns SOA accounting for MOSFETs that include theremal data
TEXT 1144 -32 Left 2 !.tran 0 200 0 1
TEXT 1136 80 Left 2 !.temp 25
