Version 4
SHEET 1 1016 972
WIRE 208 -48 32 -48
WIRE 368 -48 304 -48
WIRE 512 -48 368 -48
WIRE 608 -48 512 -48
WIRE 800 -48 688 -48
WIRE 960 -48 800 -48
WIRE 288 80 288 0
WIRE 368 80 368 -48
WIRE 800 80 800 -48
WIRE 960 80 960 -48
WIRE 512 96 512 -48
WIRE 32 112 32 -48
WIRE 32 336 32 192
WIRE 448 336 32 336
WIRE 512 336 512 160
WIRE 512 336 448 336
WIRE 800 336 800 144
WIRE 800 336 512 336
WIRE 960 336 960 160
WIRE 960 336 800 336
WIRE 448 416 448 336
WIRE 272 496 224 496
WIRE 384 496 352 496
WIRE 448 496 384 496
WIRE 384 528 384 496
WIRE 448 528 448 496
WIRE -144 544 -176 544
WIRE 32 544 -64 544
WIRE 224 544 224 496
WIRE 224 544 192 544
WIRE -176 576 -176 544
WIRE 272 592 192 592
WIRE 576 592 544 592
WIRE 672 592 640 592
WIRE 32 640 0 640
WIRE 208 640 192 640
WIRE 384 640 384 592
WIRE 384 640 208 640
WIRE 448 640 448 592
WIRE 448 640 384 640
WIRE -176 672 -176 656
WIRE 0 672 0 640
WIRE 0 672 -176 672
WIRE 272 672 272 592
WIRE 544 672 544 592
WIRE 544 672 272 672
WIRE 576 672 544 672
WIRE 672 672 672 592
WIRE 672 672 656 672
WIRE 720 672 672 672
WIRE 848 672 720 672
WIRE 208 768 208 640
WIRE 720 768 720 752
WIRE 720 768 208 768
WIRE 848 768 720 768
FLAG 448 416 0
FLAG 288 80 Gate
FLAG 368 80 src
FLAG 848 672 Gate
FLAG 848 768 src
SYMBOL voltage 32 96 R0
WINDOW 123 0 0 Left 0
WINDOW 39 0 0 Left 0
SYMATTR InstName V1
SYMATTR Value 50
SYMBOL nmos 208 0 R270
SYMATTR InstName M1
SYMATTR Value IRFH5302
SYMBOL schottky 528 160 R180
WINDOW 0 24 64 Left 2
WINDOW 3 24 0 Left 2
SYMATTR InstName D1
SYMATTR Value 1N5817
SYMATTR Description Diode
SYMATTR Type diode
SYMBOL ind 592 -32 R270
WINDOW 0 32 56 VTop 2
WINDOW 3 5 56 VBottom 2
SYMATTR InstName L1
SYMATTR Value 50µ
SYMBOL cap 784 80 R0
SYMATTR InstName C1
SYMATTR Value 100µ
SYMBOL res 944 64 R0
SYMATTR InstName R1
SYMATTR Value 1
SYMBOL voltage -176 560 R0
WINDOW 0 32 56 VTop 2
WINDOW 3 166 156 Bottom 2
WINDOW 123 0 0 Left 0
WINDOW 39 0 0 Left 0
SYMATTR InstName V2
SYMATTR Value PULSE(0 5 0 1n 1n 25u 50u)
SYMBOL ZZZ\\OPTO\\OPTO\\TLP350 80 592 R0
SYMATTR InstName U1
SYMBOL res -48 528 R90
WINDOW 0 0 56 VBottom 2
WINDOW 3 32 56 VTop 2
SYMATTR InstName R2
SYMATTR Value 330
SYMBOL voltage 256 496 R270
WINDOW 0 32 56 VTop 2
WINDOW 3 -32 56 VBottom 2
WINDOW 123 0 0 Left 0
WINDOW 39 0 0 Left 0
SYMATTR InstName V3
SYMATTR Value 15
SYMBOL cap 368 528 R0
SYMATTR InstName C2
SYMATTR Value .1µ
SYMATTR SpiceLine V=20
SYMBOL cap 432 528 R0
SYMATTR InstName C3
SYMATTR Value .01µ
SYMATTR SpiceLine V=20
SYMBOL res 672 656 R90
WINDOW 0 0 56 VBottom 2
WINDOW 3 32 56 VTop 2
SYMATTR InstName R3
SYMATTR Value 10
SYMBOL diode 640 576 R90
WINDOW 0 0 32 VBottom 2
WINDOW 3 32 32 VTop 2
SYMATTR InstName D2
SYMBOL res 704 656 R0
SYMATTR InstName R4
SYMATTR Value 10k
TEXT 24 -80 Left 2 !.tran 10m
